@<TRIPOS>MOLECULE
Traj_Lig
27 28
SMALL
USER_CHARGES
rFOS -6.36472275335 kcal/mol, CgenFF charge penalty mean/max 3.44444444444 / 24.045
rFOS -6.36472275335 kcal/mol, CgenFF charge penalty mean/max 3.44444444444 / 24.045
@<TRIPOS>ATOM
1 C1 32.839 23.594 4.065 C.3 435 0 -0.100
2 O2 33.069 24.274 2.845 O.3 435 0 -0.391
3 C3 33.679 25.504 2.925 C.ar 435 0 0.220
4 C4 33.859 26.254 4.135 C.ar 435 0 -0.115
5 C5 34.629 27.424 4.135 C.ar 435 0 -0.113
6 C6 35.189 27.894 2.915 C.ar 435 0 -0.119
7 C7 34.899 27.264 1.695 C.ar 435 0 0.009
8 C8 35.509 27.824 0.395 C.ar 642 1 -0.050
9 C9 35.469 29.184 57.895 C.ar 642 1 -0.117
10 C10 36.159 29.574 56.745 C.ar 642 1 -0.162
11 C11 36.829 28.644 55.985 C.ar 642 1 0.217
12 C12 37.369 29.114 54.725 C.1 642 1 0.358
13 N13 37.919 29.394 53.735 N.1 642 1 -0.463
14 C14 36.949 27.314 56.335 C.ar 642 1 0.139
15 F15 37.629 26.374 55.525 F 23 2 -0.223
16 C16 36.349 26.944 57.545 C.ar 642 1 -0.109
17 C17 34.109 26.024 1.755 C.ar 435 0 -0.121
18 H18 32.379 22.594 3.925 H 0 3 0.090
19 H19 33.729 23.424 4.715 H 0 4 0.090
20 H20 32.209 24.204 4.745 H 0 5 0.090
21 H21 33.409 25.974 5.075 H 0 6 0.115
22 H22 34.789 27.984 5.045 H 0 7 0.115
23 H23 35.769 28.784 3.125 H 0 8 0.115
24 H24 34.889 29.874 0.605 H 0 9 0.115
25 H25 36.139 30.584 56.375 H 0 10 0.115
26 H26 36.449 25.924 57.895 H 0 11 0.180
27 H27 33.789 25.534 0.845 H 0 12 0.115
@<TRIPOS>BOND
1 1 2 1
2 1 18 1
3 1 19 1
4 1 20 1
5 2 3 1
6 3 17 ar
7 3 4 ar
8 4 5 ar
9 4 21 1
10 5 6 ar
11 5 22 1
12 6 7 ar
13 6 23 1
14 7 8 1
15 7 17 ar
16 8 16 ar
17 8 9 ar
18 9 10 ar
19 9 24 1
20 10 11 ar
21 10 25 1
22 11 12 1
23 11 14 ar
24 12 13 3
25 14 15 1
26 14 16 ar
27 16 26 1
28 17 27 1
@<TRIPOS>ALT_TYPE
CGenFF_4.0_ALT_TYPE_SET
CGenFF_4.0 1 CG331 2 OG301 3 CG2R61 4 CG2R61 5 CG2R61 6 CG2R61 7 CG2R67 8 CG2R67 9 CG2R61 10 CG2R61 11 CG2R61 12 CG1N1 13 NG1T1 14 CG2R66 15 FGR1 16 CG2R61 17 CG2R61 18 HGA3 19 HGA3 20 HGA3 21 HGR61 22 HGR61 23 HGR61 24 HGR61 25 HGR61 26 HGR62 27 HGR61
