@<TRIPOS>MOLECULE
Traj_Lig_FINAL
15 15
SMALL
USER_CHARGES
@<TRIPOS>ATOM
     1 C1         -0.5683502908        1.044463329        6.972448295     C.2        1 0                       0.3550
     2 C2          0.1122590140      -0.2050071884        6.547655286     C.ar       1 0                      -0.0390
     3 C3          0.1150778979      -0.5952646599        5.197551531     C.ar       1 0                      -0.1180
     4 C4          0.7573448890       -1.771283645        4.806380381     C.ar       1 0                      -0.1000
     5 C5           1.395440263       -2.554607991        5.767531167     C.ar       1 0                       0.1780
     6 C6          0.7675005124       -1.032467555        7.479205699     C.ar       1 0                       0.1770
     7 N7          0.1435128568        2.284771476        7.017455628     N.am       1 0                      -0.8400
     8 H8         -0.3153882213        3.146041813        7.389084632     H          1 0                       0.3800
     9 H9           1.149910237        2.342792917        6.747326890     H          1 0                       0.3800
    10 N10          1.387122355       -2.171966995        7.070886660     N.ar       1 0                      -0.6030
    11 S11         -2.159539041        1.033403373        7.376082669     S.2        1 0                      -0.2420
    12 H12        -0.3960803014      -0.6899771898E-02    4.446708742     H          1 0                       0.1150
    13 H13         0.7561573102       -2.075136571        3.767481209     H          1 0                       0.1150
    14 H14          1.896752142       -3.468554595        5.477930158     H          1 0                       0.1210
    15 H15         0.8017707633      -0.7686184024        8.527886739     H          1 0                       0.1210
@<TRIPOS>BOND
1 1 2 1 
2 1 7 1 
3 1 11 2 
4 2 3 ar
5 2 6 ar
6 3 4 ar
7 3 12 1 
8 4 5 ar
9 4 13 1 
10 5 10 ar
11 5 14 1 
12 6 10 ar
13 6 15 1 
14 7 8 1 
15 7 9 1 
